ESS_concentrado/Rede3/PVModel7.dss
New Generator.PV1 phases=1 bus1=bus_19489723.1.4 kV=0.13 kW=1.67 conn=delta model=7 pf=1 Xdp=0.5 Vminpu=0.2 balanced=yes 
New Generator.PV2 phases=1 bus1=bus_19489724.2.4 kV=0.13 kW=1.29 conn=delta model=7 pf=1 Xdp=0.5 Vminpu=0.2 balanced=yes 
New Generator.PV3 phases=2 bus1=bus_19489725.2.3.4 kV=0.22 kW=10 conn=delta model=7 pf=1 Xdp=0.5 Vminpu=0.2 balanced=yes 
New Generator.PV4 phases=2 bus1=bus_19489636.1.2.4 kV=0.22 kW=2.30 conn=delta model=7 pf=1 Xdp=0.5 Vminpu=0.2 balanced=yes 
New Generator.PV5 phases=2 bus1=bus_19489784.2.3.4 kV=0.22 kW=1.64 conn=delta model=7 pf=1 Xdp=0.5 Vminpu=0.2 balanced=yes 
New Generator.PV6 phases=2 bus1=bus_19489784.1.3.4 kV=0.22 kW=1.73 conn=delta model=7 pf=1 Xdp=0.5 Vminpu=0.2 balanced=yes 
New Generator.PV7 phases=2 bus1=bus_19489756.1.2.4 kV=0.22 kW=1.53 conn=delta model=7 pf=1 Xdp=0.5 Vminpu=0.2 balanced=yes 
New Generator.PV8 phases=2 bus1=bus_19489826.1.3.4 kV=0.22 kW=1.62 conn=delta model=7 pf=1 Xdp=0.5 Vminpu=0.2 balanced=yes 
New Generator.PV9 phases=2 bus1=bus_19489825.2.3.4 kV=0.22 kW=2.37 conn=delta model=7 pf=1 Xdp=0.5 Vminpu=0.2 balanced=yes 
New Generator.PV10 phases=2 bus1=bus_19489824.1.2.4 kV=0.22 kW=0.74 conn=delta model=7 pf=1 Xdp=0.5 Vminpu=0.2 balanced=yes 
New Generator.PV11 phases=2 bus1=bus_19489789.1.2.4 kV=0.22 kW=2.49 conn=delta model=7 pf=1 Xdp=0.5 Vminpu=0.2 balanced=yes 
New Generator.PV12 phases=2 bus1=bus_19489791.2.3.4 kV=0.22 kW=3.09 conn=delta model=7 pf=1 Xdp=0.5 Vminpu=0.2 balanced=yes 
New Generator.PV13 phases=2 bus1=bus_19489790.2.3.4 kV=0.22 kW=2.27 conn=delta model=7 pf=1 Xdp=0.5 Vminpu=0.2 balanced=yes 
New Generator.PV14 phases=2 bus1=bus_19489793.1.2.4 kV=0.22 kW=1.60 conn=delta model=7 pf=1 Xdp=0.5 Vminpu=0.2 balanced=yes 
New Generator.PV15 phases=2 bus1=bus_19489792.2.3.4 kV=0.22 kW=2.08 conn=delta model=7 pf=1 Xdp=0.5 Vminpu=0.2 balanced=yes 
New Generator.PV16 phases=2 bus1=bus_19489690.1.2.4 kV=0.22 kW=0.90 conn=delta model=7 pf=1 Xdp=0.5 Vminpu=0.2 balanced=yes 
New Generator.PV17 phases=2 bus1=bus_19489690.2.3.4 kV=0.22 kW=1.29 conn=delta model=7 pf=1 Xdp=0.5 Vminpu=0.2 balanced=yes 
New Generator.PV18 phases=1 bus1=bus_19489689.3.4 kV=0.13 kW=0.67 conn=delta model=7 pf=1 Xdp=0.5 Vminpu=0.2 balanced=yes 
New Generator.PV19 phases=2 bus1=bus_19489689.1.2.4 kV=0.22 kW=2.24 conn=delta model=7 pf=1 Xdp=0.5 Vminpu=0.2 balanced=yes 
New Generator.PV20 phases=2 bus1=bus_19489910.1.2.4 kV=0.22 kW=1.52 conn=delta model=7 pf=1 Xdp=0.5 Vminpu=0.2 balanced=yes 
